FoamFile
{
    version     2.0;
    format      ascii;
    class       polyBoundaryMesh;
    location    "constant/polyMesh";
    object      boundary;
}

6         
(
    inlet
    {
        type patch;
        nFaces 210;
        startFace 143902;
    }
    lowerAirfoil
    {
        type wall;
        nFaces 199;
        startFace 144112;
    }
    outlet
    {
        type patch;
        nFaces 212;
        startFace 144311;
    }
    trailingEdge
    {
        type wall;
        nFaces 24;
        startFace 144523;
    }
    upperAirfoil
    {
        type wall;
        nFaces 199;
        startFace 144547;
    }
    BaseAndTop
    {
        type empty;
        nFaces 144324;
        startFace 144746;
    }
)
