FoamFile
{
    version     2.0;
    format      ascii;
    class       polyBoundaryMesh;
    location    "constant/polyMesh";
    object      boundary;
}

6         
(
    inlet
    {
        type patch;
        nFaces 209;
        startFace 201294;
    }
    lowerAirfoil
    {
        type wall;
        nFaces 199;
        startFace 201503;
    }
    outlet
    {
        type patch;
        nFaces 213;
        startFace 201702;
    }
    trailingEdge
    {
        type wall;
        nFaces 24;
        startFace 201915;
    }
    upperAirfoil
    {
        type wall;
        nFaces 199;
        startFace 201939;
    }
    BaseAndTop
    {
        type empty;
        nFaces 201716;
        startFace 202138;
    }
)
