FoamFile
{
    version     2.0;
    format      ascii;
    class       polyBoundaryMesh;
    location    "constant/polyMesh";
    object      boundary;
}

6         
(
    inlet
    {
        type patch;
        nFaces 210;
        startFace 165846;
    }
    lowerAirfoil
    {
        type wall;
        nFaces 199;
        startFace 166056;
    }
    outlet
    {
        type patch;
        nFaces 212;
        startFace 166255;
    }
    trailingEdge
    {
        type wall;
        nFaces 24;
        startFace 166467;
    }
    upperAirfoil
    {
        type wall;
        nFaces 199;
        startFace 166491;
    }
    BaseAndTop
    {
        type empty;
        nFaces 166268;
        startFace 166690;
    }
)
