FoamFile
{
    version     2.0;
    format      ascii;
    class       polyBoundaryMesh;
    location    "constant/polyMesh";
    object      boundary;
}

6         
(
    inlet
    {
        type patch;
        nFaces 210;
        startFace 218174;
    }
    lowerAirfoil
    {
        type wall;
        nFaces 199;
        startFace 218384;
    }
    outlet
    {
        type patch;
        nFaces 212;
        startFace 218583;
    }
    trailingEdge
    {
        type wall;
        nFaces 24;
        startFace 218795;
    }
    upperAirfoil
    {
        type wall;
        nFaces 199;
        startFace 218819;
    }
    BaseAndTop
    {
        type empty;
        nFaces 218596;
        startFace 219018;
    }
)
